@<TRIPOS>MOLECULE
RES
14 13 1 0 1
SMALL
NO_CHARGES
@<TRIPOS>CRYSIN
   10.3843     7.4618     7.7884    90.0000    90.0000    90.0000  1  1
@<TRIPOS>ATOM
       1 C            1.9360     0.0648     0.2465 C             1 RES     
       2 C            0.5372     0.1851    -0.3509 C             1 RES     
       3 C           -0.5372    -0.1851     0.6774 C             1 RES     
       4 C           -1.9360    -0.0648     0.0799 C             1 RES     
       5 H            2.1263    -0.9788     0.5765 H             1 RES     
       6 H            2.6921     0.3385    -0.5192 H             1 RES     
       7 H            2.0453     0.7498     1.1142 H             1 RES     
       8 H            0.4627    -0.4905    -1.2310 H             1 RES     
       9 H            0.3820     1.2309    -0.6955 H             1 RES     
      10 H           -0.4627     0.4905     1.5574 H             1 RES     
      11 H           -0.3820    -1.2309     1.0219 H             1 RES     
      12 H           -2.1263     0.9788    -0.2500 H             1 RES     
      13 H           -2.0453    -0.7498    -0.7878 H             1 RES     
      14 H           -2.6921    -0.3385     0.8457 H             1 RES     
@<TRIPOS>BOND
       1        2        1 1
       2        5        1 1
       3        6        1 1
       4        7        1 1
       5        3        2 1
       6        8        2 1
       7        9        2 1
       8        4        3 1
       9       10        3 1
      10       11        3 1
      11       12        4 1
      12       13        4 1
      13       14        4 1
@<TRIPOS>SUBSTRUCTURE
       1 RES             1 RESIDUE    0 **** ROOT      0
